data_struct
    _symmetry_space_group_name_H-M   'P 1'
    _cell_length_a                   51.70000000
    _cell_length_b                   51.70000000
    _cell_length_c                   51.70000000
    _cell_angle_alpha                90.000000
    _cell_angle_beta                 90.000000
    _cell_angle_gamma                90.000000
    loop_
    _symmetry_equiv_pos_as_xyz
    x,y,z
    loop_
    _atom_site_label
    _atom_site_fract_x
    _atom_site_fract_y
    _atom_site_fract_z

Mn 0 0 0
Co 0 0 0.25
Mn 0 0 0.5
Co 0 0 0.75
Mn 0 0.25 0.25
Co 0 0.25 0.5
Mn 0 0.25 0.75
Mn 0 0.5 0
Co 0 0.5 0.25
Mn 0 0.5 0.5
Mn 0 0.75 0.25
Co 0 0.75 0.5
Mn 0 0.75 0.75
Mn 0.25 0 0.25
Mn 0.25 0 0.75
Mn 0.25 0.25 0
Co 0.25 0.25 0.25
Mn 0.25 0.25 0.5
Co 0.25 0.5 0
Mn 0.25 0.5 0.25
Co 0.25 0.5 0.5
Mn 0.25 0.5 0.75
Mn 0.25 0.75 0
Co 0.25 0.75 0.25
Mn 0.25 0.75 0.5
Co 0.25 0.75 0.75
Mn 0.5 0 0
Co 0.5 0 0.25
Mn 0.5 0 0.5
Co 0.5 0 0.75
Mn 0.5 0.25 0.25
Mn 0.5 0.25 0.75
Mn 0.5 0.5 0
Co 0.5 0.5 0.25
Mn 0.5 0.5 0.5
Co 0.5 0.5 0.75
Co 0.5 0.75 0
Mn 0.5 0.75 0.25
Co 0.5 0.75 0.5
Mn 0.5 0.75 0.75
Mn 0.75 0 0.25
Co 0.75 0 0.5
Mn 0.75 0 0.75
Mn 0.75 0.25 0
Mn 0.75 0.25 0.5
Co 0.75 0.5 0
Mn 0.75 0.5 0.25
Co 0.75 0.5 0.5
Mn 0.75 0.5 0.75
Mn 0.75 0.75 0
Co 0.75 0.75 0.25
Mn 0.75 0.75 0.5
Co 0.75 0.75 0.75
